Version 4
SHEET 1 2176 1364
WIRE 304 80 304 64
WIRE 416 80 416 64
WIRE 304 96 304 80
WIRE 416 96 416 80
WIRE 304 208 304 176
WIRE 416 208 416 176
WIRE 576 272 -368 272
WIRE -176 352 -224 352
WIRE 128 352 -96 352
WIRE 480 368 432 368
WIRE 576 368 576 272
WIRE 576 368 544 368
WIRE -144 432 -144 416
WIRE -144 448 -144 432
WIRE 512 448 512 432
WIRE -368 464 -368 272
WIRE -336 464 -368 464
WIRE -224 464 -224 352
WIRE -224 464 -256 464
WIRE -176 464 -224 464
WIRE 512 464 512 448
WIRE 784 464 784 448
WIRE -48 480 -112 480
WIRE 0 480 -48 480
WIRE 128 480 128 352
WIRE 128 480 80 480
WIRE 208 480 128 480
WIRE 256 480 208 480
WIRE 432 480 432 368
WIRE 432 480 336 480
WIRE 480 480 432 480
WIRE 784 480 784 464
WIRE -176 496 -224 496
WIRE 576 496 576 368
WIRE 576 496 544 496
WIRE 752 496 576 496
WIRE 480 512 448 512
WIRE 864 512 816 512
WIRE 960 512 864 512
WIRE 1104 512 960 512
WIRE 1264 512 1184 512
WIRE 1456 512 1408 512
WIRE 1728 512 1536 512
WIRE -224 528 -224 496
WIRE -144 528 -144 512
WIRE 752 528 672 528
WIRE -144 544 -144 528
WIRE 448 544 448 512
WIRE 512 544 512 528
WIRE 128 560 128 480
WIRE 512 560 512 544
WIRE 784 560 784 544
WIRE 1488 608 1488 592
WIRE 1488 640 1488 608
WIRE 128 656 128 624
WIRE 672 656 672 528
WIRE 752 656 672 656
WIRE 864 656 864 512
WIRE 864 656 832 656
WIRE 1264 656 1264 512
WIRE 1408 656 1408 512
WIRE 1408 656 1264 656
WIRE 1456 656 1408 656
WIRE 672 672 672 656
WIRE 1728 672 1728 512
WIRE 1728 672 1520 672
WIRE 1760 672 1728 672
WIRE 1456 688 1408 688
WIRE 1488 736 1488 704
WIRE 1408 752 1408 688
WIRE 1488 752 1488 736
WIRE 128 768 128 720
WIRE 672 800 672 752
WIRE 576 816 -368 816
WIRE -176 896 -224 896
WIRE 128 896 -96 896
WIRE 480 912 432 912
WIRE 576 912 576 816
WIRE 576 912 544 912
WIRE -144 976 -144 960
WIRE -144 992 -144 976
WIRE 512 992 512 976
WIRE -368 1008 -368 816
WIRE -336 1008 -368 1008
WIRE -224 1008 -224 896
WIRE -224 1008 -256 1008
WIRE -176 1008 -224 1008
WIRE 512 1008 512 992
WIRE -48 1024 -112 1024
WIRE 0 1024 -48 1024
WIRE 128 1024 128 896
WIRE 128 1024 80 1024
WIRE 208 1024 128 1024
WIRE 256 1024 208 1024
WIRE 432 1024 432 912
WIRE 432 1024 336 1024
WIRE 480 1024 432 1024
WIRE -176 1040 -224 1040
WIRE 576 1040 576 912
WIRE 576 1040 544 1040
WIRE 1104 1040 576 1040
WIRE 1264 1040 1264 656
WIRE 1264 1040 1184 1040
WIRE 480 1056 448 1056
WIRE -224 1072 -224 1040
WIRE -144 1072 -144 1056
WIRE -144 1088 -144 1072
WIRE 448 1088 448 1056
WIRE 512 1088 512 1072
WIRE 128 1104 128 1024
WIRE 512 1104 512 1088
WIRE 128 1200 128 1168
WIRE 128 1312 128 1264
FLAG -224 528 0
FLAG 304 208 0
FLAG 416 208 0
FLAG -144 528 VCC
FLAG 304 80 VCC
FLAG -144 432 VEE
FLAG 416 80 VEE
FLAG 512 448 VCC
FLAG 512 544 VEE
FLAG 448 544 0
FLAG 576 496 out_T
FLAG 128 768 0
FLAG 208 480 Out_D
FLAG -48 480 Out_TS
FLAG 784 464 VEE
FLAG 784 560 VCC
FLAG 960 512 VTrap_Sat
FLAG 672 800 0
FLAG 1408 752 0
FLAG 1488 608 VCC
FLAG 1488 736 VEE
FLAG 1760 672 Vtrap
FLAG -224 1072 0
FLAG -144 1072 VCC
FLAG -144 976 VEE
FLAG 512 992 VCC
FLAG 512 1088 VEE
FLAG 448 1088 0
FLAG 576 1040 out_T2
FLAG 128 1312 0
FLAG 208 1024 Out_D2
FLAG -48 1024 Out_TS2
SYMBOL res -240 480 M270
WINDOW 0 32 56 VTop 2
WINDOW 3 0 56 VBottom 2
SYMATTR InstName R1
SYMATTR Value {R1}
SYMBOL res -80 368 M270
WINDOW 0 32 56 VTop 2
WINDOW 3 0 56 VBottom 2
SYMATTR InstName R2
SYMATTR Value {R2}
SYMBOL cap 544 352 R90
WINDOW 0 0 32 VBottom 2
WINDOW 3 32 32 VTop 2
SYMATTR InstName C1
SYMATTR Value {C}
SYMBOL voltage 304 80 R0
WINDOW 123 0 0 Left 2
WINDOW 39 0 0 Left 2
SYMATTR InstName V1
SYMATTR Value 5V
SYMBOL voltage 416 80 R0
WINDOW 123 0 0 Left 2
WINDOW 39 0 0 Left 2
SYMATTR InstName V2
SYMATTR Value -5V
SYMBOL res 352 464 R90
WINDOW 0 0 56 VBottom 2
WINDOW 3 32 56 VTop 2
SYMATTR InstName R3
SYMATTR Value {R}
SYMBOL TL431 128 592 R0
SYMATTR InstName U3
SYMBOL TL431 128 688 R180
SYMATTR InstName U4
SYMBOL res 96 464 R90
WINDOW 0 0 56 VBottom 2
WINDOW 3 32 56 VTop 2
SYMATTR InstName R4
SYMATTR Value 150
SYMBOL TL082 512 432 R0
SYMATTR InstName U2
SYMBOL TL082 -144 544 M180
SYMATTR InstName U5
SYMBOL TL082 784 576 M180
SYMATTR InstName U1
SYMBOL res 848 640 R90
WINDOW 0 0 56 VBottom 2
WINDOW 3 32 56 VTop 2
SYMATTR InstName R5
SYMATTR Value 25K
SYMBOL res 688 768 R180
WINDOW 0 36 76 Left 2
WINDOW 3 36 40 Left 2
SYMATTR InstName R6
SYMATTR Value 10k
SYMBOL TL082 1488 608 R0
SYMATTR InstName U6
SYMBOL res 1552 496 R90
WINDOW 0 0 56 VBottom 2
WINDOW 3 32 56 VTop 2
SYMATTR InstName R7
SYMATTR Value 35k
SYMBOL res -240 1024 M270
WINDOW 0 32 56 VTop 2
WINDOW 3 0 56 VBottom 2
SYMATTR InstName R9
SYMATTR Value {R1p}
SYMBOL res -80 912 M270
WINDOW 0 32 56 VTop 2
WINDOW 3 0 56 VBottom 2
SYMATTR InstName R10
SYMATTR Value {R22}
SYMBOL cap 544 896 R90
WINDOW 0 0 32 VBottom 2
WINDOW 3 32 32 VTop 2
SYMATTR InstName C2
SYMATTR Value {C2}
SYMBOL res 352 1008 R90
WINDOW 0 0 56 VBottom 2
WINDOW 3 32 56 VTop 2
SYMATTR InstName R11
SYMATTR Value {R2p}
SYMBOL TL431 128 1136 R0
SYMATTR InstName U7
SYMBOL TL431 128 1232 R180
SYMATTR InstName U8
SYMBOL res 96 1008 R90
WINDOW 0 0 56 VBottom 2
WINDOW 3 32 56 VTop 2
SYMATTR InstName R12
SYMATTR Value 150
SYMBOL TL082 512 976 R0
SYMATTR InstName U9
SYMBOL TL082 -144 1088 M180
SYMATTR InstName U10
SYMBOL res 1200 496 R90
WINDOW 0 0 56 VBottom 2
WINDOW 3 32 56 VTop 2
SYMATTR InstName R15
SYMATTR Value 50k
SYMBOL res 1200 1024 R90
WINDOW 0 0 56 VBottom 2
WINDOW 3 32 56 VTop 2
SYMATTR InstName R8
SYMATTR Value 35k
TEXT -64 120 Left 2 !.tran 0 4 0 uic
TEXT -280 176 Left 2 !.param R1=10k R2=20k C=22uF R=114k
TEXT -248 688 Left 2 !.lib TL431.lib
TEXT -248 768 Left 2 !.lib TL082.lib
TEXT -368 1296 Left 2 !.param R1p=10k R22=62k C2=2uF R2p=254k
